/*--------------------------------*- C++ -*----------------------------------*\
| =========                 |                                                 |
| \\      /  F ield         | OpenFOAM: The Open Source CFD Toolbox           |
|  \\    /   O peration     | Version:  5.x                                   |
|   \\  /    A nd           | Web:      www.OpenFOAM.org                      |
|    \\/     M anipulation  |                                                 |
\*---------------------------------------------------------------------------*/
FoamFile
{
    version     2.0;
    format      ascii;
    class       volVectorField;
    location    "0";
    object      U;
}
// * * * * * * * * * * * * * * * * * * * * * * * * * * * * * * * * * * * * * //

dimensions      [0 1 -1 0 0 0 0];

internalField   uniform (0 0 0);

boundaryField
{
    nozzle
    {
        type            noSlip;
    }
    inlet
    {
	/*
	type            interstitialInletVelocity;
        alpha           voidfraction;
        inletVelocity   uniform (0 0 1.5);
	value		uniform (0 0 1.5);
	*/

	type            uniformFixedValue;
        uniformValue     table
        (
            // (0.00 (0 0 0.00))
            // (0.50 (0 0 0.00))
            // (0.60 (0 0 0.01))
            // (1.60 (0 0 0.01))
            // (1.70 (0 0 0.02))
            // (2.70 (0 0 0.02))
            // (2.80 (0 0 0.03))
            // (3.80 (0 0 0.03))
            // (3.90 (0 0 0.04))
            // (4.90 (0 0 0.04))
            // (5.00 (0 0 0.05))
            // (6.00 (0 0 0.05))
            // (6.10 (0 0 0.04))
            // (7.10 (0 0 0.04))
            // (7.20 (0 0 0.03))
            // (8.20 (0 0 0.03))
            // (8.30 (0 0 0.02))
            // (9.30 (0 0 0.02))
            // (9.40 (0 0 0.01))
            // (10.40 (0 0 0.01))
            // (10.50 (0 0 0.00))
            // (11.50 (0 0 0.00))

            (0.00 (0 0 0.0000))
            (0.50 (0 0 0.0000))
            (0.60 (0 0 0.0100))
            (1.60 (0 0 0.0100))
            (1.70 (0 0 0.0200))
            (2.70 (0 0 0.0200))
            (2.80 (0 0 0.0233))
            (3.80 (0 0 0.0233))
            (3.90 (0 0 0.0266))
            (4.90 (0 0 0.0266))
            (5.00 (0 0 0.0300))
            (6.00 (0 0 0.0300))
            (6.10 (0 0 0.0325))
            (7.10 (0 0 0.0325))
            (7.20 (0 0 0.0350))
            (8.20 (0 0 0.0350))
            (8.30 (0 0 0.0375))
            (9.30 (0 0 0.0375))
            (9.40 (0 0 0.0400))
            (10.40 (0 0 0.0400))
            (10.50 (0 0 0.0500))
            (11.50 (0 0 0.0500))
            (11.60 (0 0 0.0400))
            (12.60 (0 0 0.0400))
            (12.70 (0 0 0.0375))
            (13.70 (0 0 0.0375))
            (13.80 (0 0 0.0350))
            (14.80 (0 0 0.0350))
            (14.90 (0 0 0.0325))
            (15.90 (0 0 0.0325))
            (16.00 (0 0 0.0300))
            (17.00 (0 0 0.0300))
            (17.10 (0 0 0.0266))
            (18.10 (0 0 0.0266))
            (18.20 (0 0 0.0233))
            (19.20 (0 0 0.0233))
            (19.30 (0 0 0.0200))
            (20.30 (0 0 0.0200))
            (20.40 (0 0 0.0100))
            (21.40 (0 0 0.0100))
            (21.50 (0 0 0.0000))
            (22.50 (0 0 0.0000))
        );
    }
    outlet
    {
        type            zeroGradient;
    }
    wall
    {
        type            noSlip;
    }
    tube
    {
        type            noSlip;
    }
}


// ************************************************************************* //
